Circuit: * C:\Users\capu2\Documents\Capu\6648 Sistemas Embebidos\Proyecto\PCB\Spice\Sensor de tension.asc

Direct Newton iteration for .op point succeeded.

Date: Wed Nov 20 13:39:24 2019
Total elapsed time: 0.562 seconds.

tnom = 27
temp = 27
method = modified trap
totiter = 8969
traniter = 8951
tranpoints = 3750
accept = 3241
rejected = 509
matrix size = 16
fillins = 2
solver = Normal
Matrix Compiler1: 1.04 KB object code size  0.6/0.5/[0.4]
Matrix Compiler2: off  [0.2]/0.5/0.3

