Circuit: * C:\Users\capu2\Documents\Capu\6648 Sistemas Embebidos\Proyecto\PCB\Spice\Sensor de tension.asc

Direct Newton iteration for .op point succeeded.

Date: Sat Nov 30 12:16:03 2019
Total elapsed time: 0.218 seconds.

tnom = 27
temp = 27
method = modified trap
totiter = 8474
traniter = 8448
tranpoints = 3245
accept = 2821
rejected = 424
matrix size = 15
fillins = 2
solver = Normal
Matrix Compiler1: 996 bytes object code size  0.6/0.4/[0.3]
Matrix Compiler2: off  [0.2]/0.5/0.4

